###begin article-title 0
###xml 91 96 <span type="species:ncbi:4932">yeast</span>
Sumoylation of the BLM ortholog, Sgs1, promotes telomere-telomere recombination in budding yeast
###end article-title 0
###begin p 1
###xml 221 245 221 245 <italic xmlns:xlink="http://www.w3.org/1999/xlink" xmlns:mml="http://www.w3.org/1998/Math/MathML">Saccharomyces cerevisiae</italic>
###xml 399 400 399 400 <underline xmlns:xlink="http://www.w3.org/1999/xlink" xmlns:mml="http://www.w3.org/1998/Math/MathML">s</underline>
###xml 405 406 405 406 <underline xmlns:xlink="http://www.w3.org/1999/xlink" xmlns:mml="http://www.w3.org/1998/Math/MathML">u</underline>
###xml 415 416 415 416 <underline xmlns:xlink="http://www.w3.org/1999/xlink" xmlns:mml="http://www.w3.org/1998/Math/MathML">r</underline>
###xml 423 424 423 424 <underline xmlns:xlink="http://www.w3.org/1999/xlink" xmlns:mml="http://www.w3.org/1998/Math/MathML">m</underline>
###xml 1026 1035 1026 1031 <italic xmlns:xlink="http://www.w3.org/1999/xlink" xmlns:mml="http://www.w3.org/1998/Math/MathML">top3&#916;</italic>
###xml 68 74 <span type="species:ncbi:9606">humans</span>
###xml 215 220 <span type="species:ncbi:4932">yeast</span>
###xml 221 245 <span type="species:ncbi:4932">Saccharomyces cerevisiae</span>
BLM and WRN are members of the RecQ family of DNA helicases, and in humans their loss is associated with syndromes characterized by genome instability and cancer predisposition. As the only RecQ DNA helicase in the yeast Saccharomyces cerevisiae, Sgs1 is known to safeguard genome integrity through its role in DNA recombination. Interestingly, WRN, BLM and Sgs1 are all known to be modified by the small ubiquitin-related modifier (SUMO), although the significance of this posttranslational modification remains elusive. Here, we demonstrate that Sgs1 is specifically sumoylated under the stress of DNA double strand breaks. The major SUMO attachment site in Sgs1 is lysine 621, which lies between the Top3 binding domain and the DNA helicase domain. Surprisingly, sumoylation of K621 was found to be uniquely required for Sgs1's role in telomere-telomere recombination. In contrast, sumoylation was dispensable for Sgs1's roles in DNA damage tolerance, supppression of direct repeat and rDNA recombination, and promotion of top3Delta slow growth. Our results demonstrate that although modification by SUMO is a conserved feature of RecQ family DNA helicases, the major sites of modification are located on different domains of the protein in different organisms. We suggest that sumoylation of different domains of RecQ DNA helicases from different organisms contributes to conserved roles in regulating telomeric recombination.
###end p 1
###begin title 2
INTRODUCTION
###end title 2
###begin p 3
###xml 405 408 405 408 <xref xmlns:xlink="http://www.w3.org/1999/xlink" xmlns:mml="http://www.w3.org/1998/Math/MathML" ref-type="bibr" rid="B1 B2 B3 B4 B5 B6">1&#8211;6</xref>
###xml 445 469 445 469 <italic xmlns:xlink="http://www.w3.org/1999/xlink" xmlns:mml="http://www.w3.org/1998/Math/MathML">Saccharomyces cerevisiae</italic>
###xml 439 444 <span type="species:ncbi:4932">yeast</span>
###xml 445 469 <span type="species:ncbi:4932">Saccharomyces cerevisiae</span>
Chromosomal DSBs, caused by replication fork disruption, environmental factors or endogenous nucleases are common yet potentially dangerous DNA lesions in all organisms. DNA DSBs are critical lesions that if unrepaired or misrepaired may be lethal for a cell or contribute to its malignant transformation. DSBs can be repaired either by homologous recombination or by non-homologous end joining pathways (1-6). In this regard, the budding yeast Saccharomyces cerevisiae has become the most intensely studied model system for DSB DNA repair.
###end p 3
###begin p 4
###xml 154 179 154 179 <italic xmlns:xlink="http://www.w3.org/1999/xlink" xmlns:mml="http://www.w3.org/1998/Math/MathML">Schizosaccharomyces pombe</italic>
###xml 192 205 192 205 <italic xmlns:xlink="http://www.w3.org/1999/xlink" xmlns:mml="http://www.w3.org/1998/Math/MathML">S. cerevisiae</italic>
###xml 207 210 207 210 <xref xmlns:xlink="http://www.w3.org/1999/xlink" xmlns:mml="http://www.w3.org/1998/Math/MathML" ref-type="bibr" rid="B7 B8 B9">7&#8211;9</xref>
###xml 313 316 313 316 <italic xmlns:xlink="http://www.w3.org/1999/xlink" xmlns:mml="http://www.w3.org/1998/Math/MathML">WRN</italic>
###xml 318 321 318 321 <italic xmlns:xlink="http://www.w3.org/1999/xlink" xmlns:mml="http://www.w3.org/1998/Math/MathML">BLM</italic>
###xml 326 332 326 332 <italic xmlns:xlink="http://www.w3.org/1999/xlink" xmlns:mml="http://www.w3.org/1998/Math/MathML">RECQL4</italic>
###xml 354 359 354 359 <xref xmlns:xlink="http://www.w3.org/1999/xlink" xmlns:mml="http://www.w3.org/1998/Math/MathML" ref-type="bibr" rid="B10 B11 B12">10&#8211;12</xref>
###xml 440 441 440 441 <xref xmlns:xlink="http://www.w3.org/1999/xlink" xmlns:mml="http://www.w3.org/1998/Math/MathML" ref-type="bibr" rid="B8">8</xref>
###xml 535 548 535 548 <italic xmlns:xlink="http://www.w3.org/1999/xlink" xmlns:mml="http://www.w3.org/1998/Math/MathML">S. cerevisiae</italic>
###xml 550 552 550 552 <xref xmlns:xlink="http://www.w3.org/1999/xlink" xmlns:mml="http://www.w3.org/1998/Math/MathML" ref-type="bibr" rid="B13">13</xref>
###xml 553 555 553 555 <xref xmlns:xlink="http://www.w3.org/1999/xlink" xmlns:mml="http://www.w3.org/1998/Math/MathML" ref-type="bibr" rid="B14">14</xref>
###xml 828 830 828 830 <xref xmlns:xlink="http://www.w3.org/1999/xlink" xmlns:mml="http://www.w3.org/1998/Math/MathML" ref-type="bibr" rid="B13">13</xref>
###xml 831 833 831 833 <xref xmlns:xlink="http://www.w3.org/1999/xlink" xmlns:mml="http://www.w3.org/1998/Math/MathML" ref-type="bibr" rid="B14">14</xref>
###xml 90 95 <span type="species:ncbi:9606">human</span>
###xml 154 179 <span type="species:ncbi:4896">Schizosaccharomyces pombe</span>
###xml 192 205 <span type="species:ncbi:4932">S. cerevisiae</span>
###xml 535 548 <span type="species:ncbi:4932">S. cerevisiae</span>
RecQ proteins comprise a highly conserved family of 3'-5' DNA helicases that includes the human BLM, WRN, RECQL4 and RECQ5 proteins, as well as Rqh1 from Schizosaccharomyces pombe and Sgs1 in S. cerevisiae (7-9). Werner's, Bloom's and Rothmund-Thomson's genome instability syndromes are caused by mutation of the WRN, BLM and RECQL4 genes, respectively (10-12). RecQ DNA helicases have been implicated in several aspects of DNA metabolism (8), including a recently characterized role in the initial step of homologous recombination in S. cerevisiae (13,14). After a DSB is formed and recognized, Sae2 trims the ends to create a minimally resected intermediate. Sgs1 and Exo1 then rapidly process this intermediate to generate extensive tracts of single-strand DNA that serve as substrates for Rad51 in homologous recombination (13,14).
###end p 4
###begin p 5
###xml 40 41 40 41 <underline xmlns:xlink="http://www.w3.org/1999/xlink" xmlns:mml="http://www.w3.org/1998/Math/MathML">s</underline>
###xml 46 47 46 47 <underline xmlns:xlink="http://www.w3.org/1999/xlink" xmlns:mml="http://www.w3.org/1998/Math/MathML">u</underline>
###xml 56 57 56 57 <underline xmlns:xlink="http://www.w3.org/1999/xlink" xmlns:mml="http://www.w3.org/1998/Math/MathML">r</underline>
###xml 64 65 64 65 <underline xmlns:xlink="http://www.w3.org/1999/xlink" xmlns:mml="http://www.w3.org/1998/Math/MathML">m</underline>
###xml 424 426 424 426 <xref xmlns:xlink="http://www.w3.org/1999/xlink" xmlns:mml="http://www.w3.org/1998/Math/MathML" ref-type="bibr" rid="B15">15</xref>
###xml 510 518 510 518 <italic xmlns:xlink="http://www.w3.org/1999/xlink" xmlns:mml="http://www.w3.org/1998/Math/MathML">S. pombe</italic>
###xml 520 522 520 522 <xref xmlns:xlink="http://www.w3.org/1999/xlink" xmlns:mml="http://www.w3.org/1998/Math/MathML" ref-type="bibr" rid="B16">16</xref>
###xml 597 602 597 602 <xref xmlns:xlink="http://www.w3.org/1999/xlink" xmlns:mml="http://www.w3.org/1998/Math/MathML" ref-type="bibr" rid="B17 B18 B19">17&#8211;19</xref>
###xml 361 366 <span type="species:ncbi:4932">yeast</span>
###xml 510 518 <span type="species:ncbi:4896">S. pombe</span>
Posttranslational modification with the small ubiquitin-related modifier (SUMO), is a widespread mechanism for rapid and reversible changes in protein function. Sumoylation occurs by a process that is similar to ubiquitylation. An E1 activating protein (Aos1/Uba2) loads SUMO onto the E2 conjugating enzyme (Ubc9), which in turn transfers SUMO (Smt3 in budding yeast) onto specific lysine residues within target substrates (15). Sumoylation has recently been reported to regulate Rqh1 activity at telomeres in S. pombe (16). Moreover, WRN, BLM and Sgs1 were all previously shown to be sumoylated (17-19), although the exact role of this modification in homologous recombination is not completely understood.
###end p 5
###begin p 6
###xml 206 211 206 211 <xref xmlns:xlink="http://www.w3.org/1999/xlink" xmlns:mml="http://www.w3.org/1998/Math/MathML" ref-type="bibr" rid="B20 B21 B22">20&#8211;22</xref>
###xml 234 247 234 247 <italic xmlns:xlink="http://www.w3.org/1999/xlink" xmlns:mml="http://www.w3.org/1998/Math/MathML">S. cerevisiae</italic>
###xml 370 372 370 372 <xref xmlns:xlink="http://www.w3.org/1999/xlink" xmlns:mml="http://www.w3.org/1998/Math/MathML" ref-type="bibr" rid="B23">23</xref>
###xml 373 375 373 375 <xref xmlns:xlink="http://www.w3.org/1999/xlink" xmlns:mml="http://www.w3.org/1998/Math/MathML" ref-type="bibr" rid="B24">24</xref>
###xml 501 506 501 506 <xref xmlns:xlink="http://www.w3.org/1999/xlink" xmlns:mml="http://www.w3.org/1998/Math/MathML" ref-type="bibr" rid="B25 B26 B27 B28 B29">25&#8211;29</xref>
###xml 811 816 811 816 <xref xmlns:xlink="http://www.w3.org/1999/xlink" xmlns:mml="http://www.w3.org/1998/Math/MathML" ref-type="bibr" rid="B20 B21 B22">20&#8211;22</xref>
###xml 63 68 <span type="species:ncbi:4932">yeast</span>
###xml 234 247 <span type="species:ncbi:4932">S. cerevisiae</span>
###xml 693 698 <span type="species:ncbi:9606">human</span>
In the absence of telomerase, immortalized mammalian cells and yeast may employ recombination-mediated pathways to maintain telomeres, termed alternative lengthening of telomeres (ALT), in mammalian cells (20-22). Telomerase-negative S. cerevisiae overcomes telomere crisis by utilizing one of two Rad52-dependent recombination-mediated pathways, termed Types I and II (23,24). Type I telomere lengthening requires Rad51, whereas Type II telomere lengthening requires Rad50 and the Sgs1/Top3 complex (25-29). Telomeric repeats in Type II survivors are amplified and often heterogeneous in length, whereas Type I survivors have amplified subtelomeric Y'-elements. Terminal telomeric repeats in human cells using ALT are long and heterogeneous, suggesting that a Type II-like mechanism is used in these pathways (20-22).
###end p 6
###begin p 7
###xml 282 284 282 284 <xref xmlns:xlink="http://www.w3.org/1999/xlink" xmlns:mml="http://www.w3.org/1998/Math/MathML" ref-type="bibr" rid="B16">16</xref>
###xml 575 577 575 577 <xref xmlns:xlink="http://www.w3.org/1999/xlink" xmlns:mml="http://www.w3.org/1998/Math/MathML" ref-type="bibr" rid="B30">30</xref>
###xml 578 580 578 580 <xref xmlns:xlink="http://www.w3.org/1999/xlink" xmlns:mml="http://www.w3.org/1998/Math/MathML" ref-type="bibr" rid="B31">31</xref>
The association of Sgs1 with the Type II recombination pathway prompted us to hypothesize a conserved function of these RecQ helicases in recombination-mediated telomere lengthening. Furthermore, very recently, Rqh1 has been reported to control the fate of dysfunctional telomeres (16). In this study, we demonstrate that DSBs induced by ionizing radiation (IR) or chemicals, but not replication fork disruption or oxidative stress, promote Sgs1 sumoylation. The major SUMO attachment site in Sgs1 is lysine 621, which lies between the Top3 binding and DNA helicase domains (30,31). A conservative mutation at this residue reduces Type II telomere-telomere recombination, but does not alter the functions of Sgs1 in DSB repair and homologous recombination at other loci in the genome. This indicates that sumoylation of Sgs1 specifically facilitates telomere-telomere recombination.
###end p 7
###begin title 8
MATERIALS AND METHODS
###end title 8
###begin title 9
###xml 0 5 <span type="species:ncbi:4932">Yeast</span>
Yeast strains and plasmids
###end title 9
###begin p 10
###xml 61 63 61 63 <xref xmlns:xlink="http://www.w3.org/1999/xlink" xmlns:mml="http://www.w3.org/1998/Math/MathML" ref-type="bibr" rid="B32">32</xref>
###xml 82 86 82 86 <italic xmlns:xlink="http://www.w3.org/1999/xlink" xmlns:mml="http://www.w3.org/1998/Math/MathML">SGS1</italic>
###xml 150 154 150 154 <italic xmlns:xlink="http://www.w3.org/1999/xlink" xmlns:mml="http://www.w3.org/1998/Math/MathML">SGS1</italic>
###xml 171 173 171 173 <xref xmlns:xlink="http://www.w3.org/1999/xlink" xmlns:mml="http://www.w3.org/1998/Math/MathML" ref-type="bibr" rid="B24">24</xref>
###xml 226 228 226 228 <xref xmlns:xlink="http://www.w3.org/1999/xlink" xmlns:mml="http://www.w3.org/1998/Math/MathML" ref-type="bibr" rid="B33">33</xref>
###xml 247 258 247 258 <italic xmlns:xlink="http://www.w3.org/1999/xlink" xmlns:mml="http://www.w3.org/1998/Math/MathML">ubc9-1 SGS1</italic>
###xml 309 315 309 315 <italic xmlns:xlink="http://www.w3.org/1999/xlink" xmlns:mml="http://www.w3.org/1998/Math/MathML">ubc9-1</italic>
###xml 317 319 317 319 <xref xmlns:xlink="http://www.w3.org/1999/xlink" xmlns:mml="http://www.w3.org/1998/Math/MathML" ref-type="bibr" rid="B34">34</xref>
###xml 334 338 334 338 <italic xmlns:xlink="http://www.w3.org/1999/xlink" xmlns:mml="http://www.w3.org/1998/Math/MathML">ULP1</italic>
###xml 343 347 343 347 <italic xmlns:xlink="http://www.w3.org/1999/xlink" xmlns:mml="http://www.w3.org/1998/Math/MathML">ULP2</italic>
###xml 410 412 410 412 <xref xmlns:xlink="http://www.w3.org/1999/xlink" xmlns:mml="http://www.w3.org/1998/Math/MathML" ref-type="bibr" rid="B35">35</xref>
###xml 413 415 413 415 <xref xmlns:xlink="http://www.w3.org/1999/xlink" xmlns:mml="http://www.w3.org/1998/Math/MathML" ref-type="bibr" rid="B36">36</xref>
###xml 425 429 425 429 <italic xmlns:xlink="http://www.w3.org/1999/xlink" xmlns:mml="http://www.w3.org/1998/Math/MathML">SGS1</italic>
###xml 510 514 510 514 <italic xmlns:xlink="http://www.w3.org/1999/xlink" xmlns:mml="http://www.w3.org/1998/Math/MathML">SGS1</italic>
###xml 596 600 596 600 <italic xmlns:xlink="http://www.w3.org/1999/xlink" xmlns:mml="http://www.w3.org/1998/Math/MathML">sgs1</italic>
###xml 617 621 617 621 <italic xmlns:xlink="http://www.w3.org/1999/xlink" xmlns:mml="http://www.w3.org/1998/Math/MathML">sgs1</italic>
###xml 676 680 676 680 <italic xmlns:xlink="http://www.w3.org/1999/xlink" xmlns:mml="http://www.w3.org/1998/Math/MathML">SGS1</italic>
###xml 694 698 694 698 <italic xmlns:xlink="http://www.w3.org/1999/xlink" xmlns:mml="http://www.w3.org/1998/Math/MathML">URA3</italic>
###xml 867 877 867 877 <italic xmlns:xlink="http://www.w3.org/1999/xlink" xmlns:mml="http://www.w3.org/1998/Math/MathML">sgs1::HIS3</italic>
###xml 941 951 941 951 <italic xmlns:xlink="http://www.w3.org/1999/xlink" xmlns:mml="http://www.w3.org/1998/Math/MathML">sgs1::HIS3</italic>
###xml 988 992 988 992 <italic xmlns:xlink="http://www.w3.org/1999/xlink" xmlns:mml="http://www.w3.org/1998/Math/MathML">sgs1</italic>
###xml 994 998 994 998 <italic xmlns:xlink="http://www.w3.org/1999/xlink" xmlns:mml="http://www.w3.org/1998/Math/MathML">HIS3</italic>
###xml 1001 1003 1001 1003 <xref xmlns:xlink="http://www.w3.org/1999/xlink" xmlns:mml="http://www.w3.org/1998/Math/MathML" ref-type="bibr" rid="B27">27</xref>
###xml 1026 1030 1026 1030 <italic xmlns:xlink="http://www.w3.org/1999/xlink" xmlns:mml="http://www.w3.org/1998/Math/MathML">SGS1</italic>
###xml 1076 1080 1076 1080 <italic xmlns:xlink="http://www.w3.org/1999/xlink" xmlns:mml="http://www.w3.org/1998/Math/MathML">exo1</italic>
###xml 1136 1140 1136 1140 <italic xmlns:xlink="http://www.w3.org/1999/xlink" xmlns:mml="http://www.w3.org/1998/Math/MathML">EXO1</italic>
###xml 1155 1167 1155 1167 <italic xmlns:xlink="http://www.w3.org/1999/xlink" xmlns:mml="http://www.w3.org/1998/Math/MathML">exo1::kanMX6</italic>
###xml 1245 1255 1245 1255 <italic xmlns:xlink="http://www.w3.org/1999/xlink" xmlns:mml="http://www.w3.org/1998/Math/MathML">top3::URA3</italic>
###xml 1279 1283 1279 1283 <italic xmlns:xlink="http://www.w3.org/1999/xlink" xmlns:mml="http://www.w3.org/1998/Math/MathML">URA3</italic>
###xml 1332 1334 1332 1334 <xref xmlns:xlink="http://www.w3.org/1999/xlink" xmlns:mml="http://www.w3.org/1998/Math/MathML" ref-type="bibr" rid="B37">37</xref>
###xml 1392 1396 1392 1396 <italic xmlns:xlink="http://www.w3.org/1999/xlink" xmlns:mml="http://www.w3.org/1998/Math/MathML">TOP3</italic>
###xml 1568 1570 1568 1570 <xref xmlns:xlink="http://www.w3.org/1999/xlink" xmlns:mml="http://www.w3.org/1998/Math/MathML" ref-type="bibr" rid="B34">34</xref>
###xml 1642 1652 1642 1652 <italic xmlns:xlink="http://www.w3.org/1999/xlink" xmlns:mml="http://www.w3.org/1998/Math/MathML">sgs1::URA3</italic>
###xml 1708 1718 1708 1718 <italic xmlns:xlink="http://www.w3.org/1999/xlink" xmlns:mml="http://www.w3.org/1998/Math/MathML">sgs1::URA3</italic>
###xml 1789 1793 1789 1793 <italic xmlns:xlink="http://www.w3.org/1999/xlink" xmlns:mml="http://www.w3.org/1998/Math/MathML">SGS1</italic>
###xml 1829 1833 1829 1833 <italic xmlns:xlink="http://www.w3.org/1999/xlink" xmlns:mml="http://www.w3.org/1998/Math/MathML">SGS1</italic>
###xml 1878 1882 1878 1882 <italic xmlns:xlink="http://www.w3.org/1999/xlink" xmlns:mml="http://www.w3.org/1998/Math/MathML">SGS1</italic>
###xml 1884 1886 1884 1886 <xref xmlns:xlink="http://www.w3.org/1999/xlink" xmlns:mml="http://www.w3.org/1998/Math/MathML" ref-type="bibr" rid="B27">27</xref>
###xml 1937 1941 1937 1941 <italic xmlns:xlink="http://www.w3.org/1999/xlink" xmlns:mml="http://www.w3.org/1998/Math/MathML">SGS1</italic>
###xml 2007 2011 2007 2011 <italic xmlns:xlink="http://www.w3.org/1999/xlink" xmlns:mml="http://www.w3.org/1998/Math/MathML">SGS1</italic>
###xml 2031 2035 2031 2035 <italic xmlns:xlink="http://www.w3.org/1999/xlink" xmlns:mml="http://www.w3.org/1998/Math/MathML">SGS1</italic>
###xml 2050 2054 2050 2054 <italic xmlns:xlink="http://www.w3.org/1999/xlink" xmlns:mml="http://www.w3.org/1998/Math/MathML">SGS1</italic>
###xml 2146 2150 2146 2150 <italic xmlns:xlink="http://www.w3.org/1999/xlink" xmlns:mml="http://www.w3.org/1998/Math/MathML">SGS1</italic>
###xml 2178 2182 2178 2182 <italic xmlns:xlink="http://www.w3.org/1999/xlink" xmlns:mml="http://www.w3.org/1998/Math/MathML">SGS1</italic>
###xml 8 13 <span type="species:ncbi:4932">yeast</span>
###xml 826 831 <span type="species:ncbi:4932">yeast</span>
###xml 1192 1197 <span type="species:ncbi:4932">yeast</span>
All the yeast operations were performed by standard methods (32). STY1525 (YPH499 SGS1-13Myc) was constructed by double crossing over the chromosomal SGS1 gene of YPH499 (24) with a 13Myc PCR fragment from pFA6a-13Myc-kanMX6 (33). STY1793 (YPH499 ubc9-1 SGS1-13Myc) was obtained by three backcrosses of MR966 ubc9-1 (34) with YPH499, ULP1 and ULP2 plasmids, which were kindly provided by Dr Mark Hochstrasser (35,36). pRS306-SGS1 was constructed as described below. Point mutations were introduced into pRS306-SGS1 using QuikChange site-directed mutagenesis (Stratagene). To generate chromosomal sgs1 mutants, pRS306-sgs1 mutants were linearized by AflII and transformed into SGS1 strains, and URA3 pop-out mutants were identified from 5-FOA-resistant colonies using PCR analysis. Both E3 deletion mutants were purchased from yeast deletion library (Invitrogen). The sgs1::HIS3 mutation was constructed by transforming these strains with an sgs1::HIS3 PCR fragment amplified from STY680 (sgs1::HIS3) (27) genomic DNA using an SGS1 upstream and downstream primer pairs. YPH499 exo1 strains were generated by transplacement of the YPH499 EXO1 locus with an exo1::kanMX6 fragment amplified from yeast deletion library (Invitrogen). STY1881 (YPH500 top3::URA3) was generated using a URA3 fragment that was PCR-amplified from pMPY-3xHA (37) using oligonucleotides with sequences homologous to the TOP3 upstream and downstream regions. This knockout fragment was then introduced into the indicated strains. For the inter-chromosomal recombination assay, MR966 and MR93-28c (34) were manipulated independently and mated to obtain diploid cells. The sgs1::URA3 mutation was generated by transforming strains with an sgs1::URA3 PCR fragment amplified using primers with sequences homologous to the SGS1 up- and downstream regions. pRS316-SGS1 was a backbone exchange construct of pRS314-SGS1 (27). A SacII-SacI fragment containing the C-terminal SGS1 and 13Myc regions was cloned into the SacII/SacI-digested pRS316-SGS1 to generate pRS316-SGS1-13Myc. pRS306-SGS1 for two-step gene replacement was cloned by ligation of an XhoI/BamHI fragment from pRS316-SGS1-13Myc into pRS306. pGEX-4T-SGS1 (410-713) was constructed by ligating the BamHI/PstI-Klenow-treated fragment containing the aa 410-713 of Sgs1 into the BamHI/SmaI-digested pGEX4T-1 (GE). All primer sequences for PCR and mutagenesis are available upon request.
###end p 10
###begin title 11
###xml 30 38 30 38 <italic xmlns:xlink="http://www.w3.org/1999/xlink" xmlns:mml="http://www.w3.org/1998/Math/MathML">in vitro</italic>
Western blotting analysis and in vitro sumoylation assay
###end title 11
###begin p 12
###xml 44 47 44 47 <sub xmlns:xlink="http://www.w3.org/1999/xlink" xmlns:mml="http://www.w3.org/1998/Math/MathML">600</sub>
###xml 209 210 209 210 <sub xmlns:xlink="http://www.w3.org/1999/xlink" xmlns:mml="http://www.w3.org/1998/Math/MathML">6</sub>
###xml 308 310 308 310 <xref xmlns:xlink="http://www.w3.org/1999/xlink" xmlns:mml="http://www.w3.org/1998/Math/MathML" ref-type="bibr" rid="B38">38</xref>
###xml 332 334 332 334 <xref xmlns:xlink="http://www.w3.org/1999/xlink" xmlns:mml="http://www.w3.org/1998/Math/MathML" ref-type="bibr" rid="B39">39</xref>
###xml 395 397 395 397 <xref xmlns:xlink="http://www.w3.org/1999/xlink" xmlns:mml="http://www.w3.org/1998/Math/MathML" ref-type="bibr" rid="B38">38</xref>
###xml 511 519 511 519 <italic xmlns:xlink="http://www.w3.org/1999/xlink" xmlns:mml="http://www.w3.org/1998/Math/MathML">in vitro</italic>
###xml 761 762 747 748 <sub xmlns:xlink="http://www.w3.org/1999/xlink" xmlns:mml="http://www.w3.org/1998/Math/MathML">2</sub>
###xml 218 223 <span type="species:ncbi:4932">yeast</span>
###xml 771 777 <span type="species:ncbi:9913">bovine</span>
Early log phase cultures were grown to an OD600 of 0.5 and extracts were prepared for western blotting using an anti-Myc antibody. The signal was quantitated using ImageQuant software Version 5.2 (GE). The His6-tagged yeast SUMO E1, E2 and Smt3 expression plasmids were kindly provided by Drs Gunter Blobel (38) and Ting-Fang Wang (39). Purification of these enzymes was performed as described (38). Recombinant GST-Sgs1 was expressed in the BL21 strain and purified according to the manufacturer (GE). For the in vitro sumoylation assay, 1 microg of SUMO, 2 mug of Aos1/Uba2, 2.5 mug of Ubc9 and 5 mug of substrate were incubated at 30degreesC for 2 h. Reactions were performed in 50 mul reaction buffer containing 50 mM HEPES (pH 7.5), 100 mM NaCl, 10 mM MgCl2, 20 mug bovine serum albumin, 5 mM Tris, 0.1 mM DTT and 5 mM ATP.
###end p 12
###begin title 13
Spot dilution assay
###end title 13
###begin p 14
###xml 76 79 76 79 <sub xmlns:xlink="http://www.w3.org/1999/xlink" xmlns:mml="http://www.w3.org/1998/Math/MathML">600</sub>
For the spot dilution assay, early log phase cultures were adjusted to an OD600 of 0.5 and serial 5-fold dilutions were made in sterial water. Five microliters were spotted onto YPD plates, followed by exposure to different temperatures, ionizing radiation (IR), or UV light. Alternatively, cells were spotted onto YPD plates containing various concentrations of methyl methanesulphonate (MMS), ethyl methanesulfonate (EMS), bleomycin or hydroxyurea (HU). Drug-containing plates were prepared 2 days before use.
###end p 14
###begin title 15
###xml 0 5 <span type="species:ncbi:4932">Yeast</span>
Yeast telomere analysis
###end title 15
###begin p 16
###xml 505 507 499 501 <xref xmlns:xlink="http://www.w3.org/1999/xlink" xmlns:mml="http://www.w3.org/1998/Math/MathML" ref-type="bibr" rid="B40">40</xref>
###xml 701 703 695 697 <xref xmlns:xlink="http://www.w3.org/1999/xlink" xmlns:mml="http://www.w3.org/1998/Math/MathML" ref-type="bibr" rid="B40">40</xref>
Liquid cultures were generated by inoculating spore colonies from the freshly dissected spores into 10 ml of liquid YEPD medium. Cultures were diluted repeatedly 1:10 000 into fresh medium and grown at 30degreesC for 48-72 h to reach the stationary phase. Solid-media experiments were performed by repeatedly streaking spore colonies from the dissection plates onto YEPD plates. To quantify the ratio of Type I versus Type II survivors, spore cells were serially restreaked onto YEPD medium as described (40) to obtain survivors on solid media. Genomic DNA was digested with a mixture of HaeIII, HinfI and MspI, and Southern blot analysis was performed using a telomere probe as previously described (40).
###end p 16
###begin title 17
Competition assay for formation of survivors
###end title 17
###begin p 18
###xml 4 13 4 9 <italic xmlns:xlink="http://www.w3.org/1999/xlink" xmlns:mml="http://www.w3.org/1998/Math/MathML">tlc1&#916;</italic>
###xml 18 38 14 30 <italic xmlns:xlink="http://www.w3.org/1999/xlink" xmlns:mml="http://www.w3.org/1998/Math/MathML">tlc1&#916; sgs1-K621R</italic>
###xml 385 389 377 381 <italic xmlns:xlink="http://www.w3.org/1999/xlink" xmlns:mml="http://www.w3.org/1998/Math/MathML">SGS1</italic>
###xml 412 413 404 405 <italic xmlns:xlink="http://www.w3.org/1999/xlink" xmlns:mml="http://www.w3.org/1998/Math/MathML">.</italic>
###xml 498 502 490 494 <italic xmlns:xlink="http://www.w3.org/1999/xlink" xmlns:mml="http://www.w3.org/1998/Math/MathML">SGS1</italic>
###xml 539 549 531 541 <italic xmlns:xlink="http://www.w3.org/1999/xlink" xmlns:mml="http://www.w3.org/1998/Math/MathML">sgs1-K621R</italic>
###xml 576 577 568 569 <underline xmlns:xlink="http://www.w3.org/1999/xlink" xmlns:mml="http://www.w3.org/1998/Math/MathML">C</underline>
###xml 817 821 809 813 <italic xmlns:xlink="http://www.w3.org/1999/xlink" xmlns:mml="http://www.w3.org/1998/Math/MathML">SGS1</italic>
###xml 826 836 818 828 <italic xmlns:xlink="http://www.w3.org/1999/xlink" xmlns:mml="http://www.w3.org/1998/Math/MathML">sgs1-K621R</italic>
The tlc1Delta and tlc1Delta sgs1-K621R cells were taken from freshly dissected spore colonies and mixed in a 50:50 ratio in YEPD medium. Following growth to stationary phase, cultures were diluted 1:10 000 every 2 days, for 12 days. Genomic DNA was extracted from cultures at the indicated time points and subjected to quantitative real-time PCR to determine the genomic background of SGS1 using specific primers. The tubulin gene was used as an internal control. The primer specific for wild-type SGS1 is GACTAACACTGGATTTCTCCCTTT and for sgs1-K621R is GACTAACACTGGATTTCTCCCTTC (the underline indicates the difference in the mutant). Control experiments showed that the primers did not cross-amplify non-specific products (data not shown). Data were expressed as a percentage of the sum of the signals amplified from SGS1 and sgs1-K621R in individual cultures. Other primer sequences for PCR are available upon request.
###end p 18
###begin title 19
Assays for recombination frequency
###end title 19
###begin p 20
###xml 115 117 115 117 <xref xmlns:xlink="http://www.w3.org/1999/xlink" xmlns:mml="http://www.w3.org/1998/Math/MathML" ref-type="bibr" rid="B41">41</xref>
###xml 398 404 398 404 <italic xmlns:xlink="http://www.w3.org/1999/xlink" xmlns:mml="http://www.w3.org/1998/Math/MathML">his1-1</italic>
###xml 409 415 409 415 <italic xmlns:xlink="http://www.w3.org/1999/xlink" xmlns:mml="http://www.w3.org/1998/Math/MathML">his1-7</italic>
Recombination between direct repeats was assayed in the indicated strains following transformation with pRS314-Lu (41). Fresh transformants were first patched onto YEPD plates for 24 h. Cells were then resuspended in water and diluted onto synthetic complete (SC) plates (with or without leucine) to score recombination frequency. To determine the inter-chromosomal recombination frequency between his1-1 and his1-7 heteroalleles, independent colonies of indicated strains were patched on YEPD plates for 24 h. Cells were then resuspended in water and diluted onto SC plates (with or without histidine) containing 0 or 0.01% of MMS to monitor viability and recombination frequency. It is worth noting that this assay could not distinguish between gene conversion and recombination.
###end p 20
###begin title 21
rDNA recombination
###end title 21
###begin p 22
###xml 110 114 110 114 <italic xmlns:xlink="http://www.w3.org/1999/xlink" xmlns:mml="http://www.w3.org/1998/Math/MathML">URA3</italic>
###xml 141 162 141 162 <italic xmlns:xlink="http://www.w3.org/1999/xlink" xmlns:mml="http://www.w3.org/1998/Math/MathML">rDNA::URA3 sgs1::HIS3</italic>
###xml 210 220 210 220 <italic xmlns:xlink="http://www.w3.org/1999/xlink" xmlns:mml="http://www.w3.org/1998/Math/MathML">rDNA::URA3</italic>
###xml 242 244 242 244 <xref xmlns:xlink="http://www.w3.org/1999/xlink" xmlns:mml="http://www.w3.org/1998/Math/MathML" ref-type="bibr" rid="B42">42</xref>
###xml 340 344 340 344 <italic xmlns:xlink="http://www.w3.org/1999/xlink" xmlns:mml="http://www.w3.org/1998/Math/MathML">SGS1</italic>